New circuit.UCD_Network bus1=esb_sub BasekV=10 pu=1.00 Angle=0 phases=3 ISC3=99999999999 Isc1=99999999999

