New LineCode.3c_185_sac_xc nphases=3 R1=0.166 X1=0.074 R0=0.658 X0=0.112 C1=0.93 C0=0.4778 Units=km
New LineCode.3c_95_sac_xc nphases=3 R1=0.322 X1=0.074 R0=0.282 X0=0.125 C1=0.84 C0=0.4043 Units=km
